<?xml version="1.0" encoding="UTF-8"?>
<!DOCTYPE network SYSTEM "http://www.matsim.org/files/dtd/network_v1.dtd">
<network xml:lang="en" >
	<nodes>
		<node id="68" x="6.0" y="8.0" />
		<node id="79" x="7.0" y="9.0" />
		<node id="4" x="0.0" y="4.0" />
		<node id="42" x="4.0" y="2.0" />
		<node id="78" x="7.0" y="8.0" />
		<node id="90" x="9.0" y="0.0" />
		<node id="18" x="1.0" y="8.0" />
		<node id="44" x="4.0" y="4.0" />
		<node id="76" x="7.0" y="6.0" />
		<node id="80" x="8.0" y="0.0" />
		<node id="81" x="8.0" y="1.0" />
		<node id="41" x="4.0" y="1.0" />
		<node id="96" x="9.0" y="6.0" />
		<node id="6" x="0.0" y="6.0" />
		<node id="25" x="2.0" y="5.0" />
		<node id="20" x="2.0" y="0.0" />
		<node id="62" x="6.0" y="2.0" />
		<node id="64" x="6.0" y="4.0" />
		<node id="31" x="3.0" y="1.0" />
		<node id="15" x="1.0" y="5.0" />
		<node id="36" x="3.0" y="6.0" />
		<node id="51" x="5.0" y="1.0" />
		<node id="22" x="2.0" y="2.0" />
		<node id="75" x="7.0" y="5.0" />
		<node id="84" x="8.0" y="4.0" />
		<node id="39" x="3.0" y="9.0" />
		<node id="69" x="6.0" y="9.0" />
		<node id="28" x="2.0" y="8.0" />
		<node id="91" x="9.0" y="1.0" />
		<node id="58" x="5.0" y="8.0" />
		<node id="33" x="3.0" y="3.0" />
		<node id="56" x="5.0" y="6.0" />
		<node id="55" x="5.0" y="5.0" />
		<node id="89" x="8.0" y="9.0" />
		<node id="8" x="0.0" y="8.0" />
		<node id="59" x="5.0" y="9.0" />
		<node id="66" x="6.0" y="6.0" />
		<node id="47" x="4.0" y="7.0" />
		<node id="26" x="2.0" y="6.0" />
		<node id="35" x="3.0" y="5.0" />
		<node id="45" x="4.0" y="5.0" />
		<node id="53" x="5.0" y="3.0" />
		<node id="5" x="0.0" y="5.0" />
		<node id="71" x="7.0" y="1.0" />
		<node id="7" x="0.0" y="7.0" />
		<node id="92" x="9.0" y="2.0" />
		<node id="83" x="8.0" y="3.0" />
		<node id="40" x="4.0" y="0.0" />
		<node id="94" x="9.0" y="4.0" />
		<node id="85" x="8.0" y="5.0" />
		<node id="87" x="8.0" y="7.0" />
		<node id="77" x="7.0" y="7.0" />
		<node id="34" x="3.0" y="4.0" />
		<node id="61" x="6.0" y="1.0" />
		<node id="43" x="4.0" y="3.0" />
		<node id="97" x="9.0" y="7.0" />
		<node id="70" x="7.0" y="0.0" />
		<node id="2" x="0.0" y="2.0" />
		<node id="29" x="2.0" y="9.0" />
		<node id="1" x="0.0" y="1.0" />
		<node id="23" x="2.0" y="3.0" />
		<node id="63" x="6.0" y="3.0" />
		<node id="13" x="1.0" y="3.0" />
		<node id="49" x="4.0" y="9.0" />
		<node id="14" x="1.0" y="4.0" />
		<node id="50" x="5.0" y="0.0" />
		<node id="3" x="0.0" y="3.0" />
		<node id="73" x="7.0" y="3.0" />
		<node id="57" x="5.0" y="7.0" />
		<node id="30" x="3.0" y="0.0" />
		<node id="52" x="5.0" y="2.0" />
		<node id="12" x="1.0" y="2.0" />
		<node id="54" x="5.0" y="4.0" />
		<node id="72" x="7.0" y="2.0" />
		<node id="27" x="2.0" y="7.0" />
		<node id="93" x="9.0" y="3.0" />
		<node id="17" x="1.0" y="7.0" />
		<node id="74" x="7.0" y="4.0" />
		<node id="65" x="6.0" y="5.0" />
		<node id="0" x="0.0" y="0.0" />
		<node id="48" x="4.0" y="8.0" />
		<node id="82" x="8.0" y="2.0" />
		<node id="32" x="3.0" y="2.0" />
		<node id="60" x="6.0" y="0.0" />
		<node id="19" x="1.0" y="9.0" />
		<node id="86" x="8.0" y="6.0" />
		<node id="98" x="9.0" y="8.0" />
		<node id="99" x="9.0" y="9.0" />
		<node id="88" x="8.0" y="8.0" />
		<node id="38" x="3.0" y="8.0" />
		<node id="37" x="3.0" y="7.0" />
		<node id="24" x="2.0" y="4.0" />
		<node id="95" x="9.0" y="5.0" />
		<node id="67" x="6.0" y="7.0" />
		<node id="46" x="4.0" y="6.0" />
		<node id="10" x="1.0" y="0.0" />
		<node id="9" x="0.0" y="9.0" />
		<node id="16" x="1.0" y="6.0" />
		<node id="11" x="1.0" y="1.0" />
		<node id="21" x="2.0" y="1.0" />
	</nodes>
	<links capperiod="01:00:00" effectivecellsize="7.5" effectivelanewidth="3.75" >
		<link id="10" from="3" to="12" length="1.4142135623730951" freespeed="1.0" capacity="1.0" permlanes="1.0" oneway="1" />
		<link id="120" from="32" to="43" length="1.4142135623730951" freespeed="1.0" capacity="1.0" permlanes="1.0" oneway="1" />
		<link id="111" from="30" to="31" length="1.0" freespeed="1.0" capacity="1.0" permlanes="1.0" oneway="1" />
		<link id="135" from="36" to="37" length="1.0" freespeed="1.0" capacity="1.0" permlanes="1.0" oneway="1" />
		<link id="144" from="38" to="49" length="1.4142135623730951" freespeed="1.0" capacity="1.0" permlanes="1.0" oneway="1" />
		<link id="132" from="35" to="46" length="1.4142135623730951" freespeed="1.0" capacity="1.0" permlanes="1.0" oneway="1" />
		<link id="139" from="37" to="38" length="1.0" freespeed="1.0" capacity="1.0" permlanes="1.0" oneway="1" />
		<link id="325" from="87" to="98" length="1.4142135623730951" freespeed="1.0" capacity="1.0" permlanes="1.0" oneway="1" />
		<link id="160" from="43" to="44" length="1.0" freespeed="1.0" capacity="1.0" permlanes="1.0" oneway="1" />
		<link id="336" from="93" to="94" length="1.0" freespeed="1.0" capacity="1.0" permlanes="1.0" oneway="1" />
		<link id="166" from="45" to="54" length="1.4142135623730951" freespeed="1.0" capacity="1.0" permlanes="1.0" oneway="1" />
		<link id="181" from="48" to="59" length="1.4142135623730951" freespeed="1.0" capacity="1.0" permlanes="1.0" oneway="1" />
		<link id="314" from="85" to="94" length="1.4142135623730951" freespeed="1.0" capacity="1.0" permlanes="1.0" oneway="1" />
		<link id="115" from="31" to="32" length="1.0" freespeed="1.0" capacity="1.0" permlanes="1.0" oneway="1" />
		<link id="142" from="37" to="47" length="1.0" freespeed="1.0" capacity="1.0" permlanes="1.0" oneway="1" />
		<link id="6" from="2" to="11" length="1.4142135623730951" freespeed="1.0" capacity="1.0" permlanes="1.0" oneway="1" />
		<link id="321" from="86" to="97" length="1.4142135623730951" freespeed="1.0" capacity="1.0" permlanes="1.0" oneway="1" />
		<link id="339" from="96" to="97" length="1.0" freespeed="1.0" capacity="1.0" permlanes="1.0" oneway="1" />
		<link id="17" from="4" to="15" length="1.4142135623730951" freespeed="1.0" capacity="1.0" permlanes="1.0" oneway="1" />
		<link id="279" from="75" to="76" length="1.0" freespeed="1.0" capacity="1.0" permlanes="1.0" oneway="1" />
		<link id="305" from="82" to="93" length="1.4142135623730951" freespeed="1.0" capacity="1.0" permlanes="1.0" oneway="1" />
		<link id="79" from="21" to="32" length="1.4142135623730951" freespeed="1.0" capacity="1.0" permlanes="1.0" oneway="1" />
		<link id="318" from="86" to="95" length="1.4142135623730951" freespeed="1.0" capacity="1.0" permlanes="1.0" oneway="1" />
		<link id="124" from="33" to="44" length="1.4142135623730951" freespeed="1.0" capacity="1.0" permlanes="1.0" oneway="1" />
		<link id="315" from="84" to="94" length="1.0" freespeed="1.0" capacity="1.0" permlanes="1.0" oneway="1" />
		<link id="103" from="27" to="38" length="1.4142135623730951" freespeed="1.0" capacity="1.0" permlanes="1.0" oneway="1" />
		<link id="130" from="34" to="44" length="1.0" freespeed="1.0" capacity="1.0" permlanes="1.0" oneway="1" />
		<link id="206" from="55" to="66" length="1.4142135623730951" freespeed="1.0" capacity="1.0" permlanes="1.0" oneway="1" />
		<link id="224" from="61" to="70" length="1.4142135623730951" freespeed="1.0" capacity="1.0" permlanes="1.0" oneway="1" />
		<link id="298" from="81" to="90" length="1.4142135623730951" freespeed="1.0" capacity="1.0" permlanes="1.0" oneway="1" />
		<link id="25" from="6" to="17" length="1.4142135623730951" freespeed="1.0" capacity="1.0" permlanes="1.0" oneway="1" />
		<link id="317" from="85" to="96" length="1.4142135623730951" freespeed="1.0" capacity="1.0" permlanes="1.0" oneway="1" />
		<link id="9" from="2" to="13" length="1.4142135623730951" freespeed="1.0" capacity="1.0" permlanes="1.0" oneway="1" />
		<link id="20" from="5" to="6" length="1.0" freespeed="1.0" capacity="1.0" permlanes="1.0" oneway="1" />
		<link id="278" from="74" to="84" length="1.0" freespeed="1.0" capacity="1.0" permlanes="1.0" oneway="1" />
		<link id="294" from="78" to="88" length="1.0" freespeed="1.0" capacity="1.0" permlanes="1.0" oneway="1" />
		<link id="231" from="62" to="73" length="1.4142135623730951" freespeed="1.0" capacity="1.0" permlanes="1.0" oneway="1" />
		<link id="119" from="32" to="33" length="1.0" freespeed="1.0" capacity="1.0" permlanes="1.0" oneway="1" />
		<link id="299" from="80" to="90" length="1.0" freespeed="1.0" capacity="1.0" permlanes="1.0" oneway="1" />
		<link id="68" from="17" to="27" length="1.0" freespeed="1.0" capacity="1.0" permlanes="1.0" oneway="1" />
		<link id="7" from="1" to="11" length="1.0" freespeed="1.0" capacity="1.0" permlanes="1.0" oneway="1" />
		<link id="82" from="22" to="23" length="1.0" freespeed="1.0" capacity="1.0" permlanes="1.0" oneway="1" />
		<link id="301" from="81" to="92" length="1.4142135623730951" freespeed="1.0" capacity="1.0" permlanes="1.0" oneway="1" />
		<link id="112" from="30" to="41" length="1.4142135623730951" freespeed="1.0" capacity="1.0" permlanes="1.0" oneway="1" />
		<link id="41" from="11" to="12" length="1.0" freespeed="1.0" capacity="1.0" permlanes="1.0" oneway="1" />
		<link id="131" from="35" to="36" length="1.0" freespeed="1.0" capacity="1.0" permlanes="1.0" oneway="1" />
		<link id="284" from="76" to="87" length="1.4142135623730951" freespeed="1.0" capacity="1.0" permlanes="1.0" oneway="1" />
		<link id="48" from="12" to="22" length="1.0" freespeed="1.0" capacity="1.0" permlanes="1.0" oneway="1" />
		<link id="49" from="13" to="14" length="1.0" freespeed="1.0" capacity="1.0" permlanes="1.0" oneway="1" />
		<link id="215" from="58" to="67" length="1.4142135623730951" freespeed="1.0" capacity="1.0" permlanes="1.0" oneway="1" />
		<link id="110" from="29" to="39" length="1.0" freespeed="1.0" capacity="1.0" permlanes="1.0" oneway="1" />
		<link id="189" from="51" to="52" length="1.0" freespeed="1.0" capacity="1.0" permlanes="1.0" oneway="1" />
		<link id="239" from="64" to="75" length="1.4142135623730951" freespeed="1.0" capacity="1.0" permlanes="1.0" oneway="1" />
		<link id="186" from="50" to="61" length="1.4142135623730951" freespeed="1.0" capacity="1.0" permlanes="1.0" oneway="1" />
		<link id="95" from="25" to="36" length="1.4142135623730951" freespeed="1.0" capacity="1.0" permlanes="1.0" oneway="1" />
		<link id="64" from="16" to="26" length="1.0" freespeed="1.0" capacity="1.0" permlanes="1.0" oneway="1" />
		<link id="264" from="71" to="82" length="1.4142135623730951" freespeed="1.0" capacity="1.0" permlanes="1.0" oneway="1" />
		<link id="168" from="45" to="46" length="1.0" freespeed="1.0" capacity="1.0" permlanes="1.0" oneway="1" />
		<link id="257" from="68" to="78" length="1.0" freespeed="1.0" capacity="1.0" permlanes="1.0" oneway="1" />
		<link id="39" from="11" to="20" length="1.4142135623730951" freespeed="1.0" capacity="1.0" permlanes="1.0" oneway="1" />
		<link id="73" from="19" to="29" length="1.0" freespeed="1.0" capacity="1.0" permlanes="1.0" oneway="1" />
		<link id="327" from="87" to="97" length="1.0" freespeed="1.0" capacity="1.0" permlanes="1.0" oneway="1" />
		<link id="161" from="43" to="54" length="1.4142135623730951" freespeed="1.0" capacity="1.0" permlanes="1.0" oneway="1" />
		<link id="83" from="22" to="33" length="1.4142135623730951" freespeed="1.0" capacity="1.0" permlanes="1.0" oneway="1" />
		<link id="109" from="28" to="38" length="1.0" freespeed="1.0" capacity="1.0" permlanes="1.0" oneway="1" />
		<link id="163" from="43" to="53" length="1.0" freespeed="1.0" capacity="1.0" permlanes="1.0" oneway="1" />
		<link id="319" from="85" to="95" length="1.0" freespeed="1.0" capacity="1.0" permlanes="1.0" oneway="1" />
		<link id="126" from="33" to="43" length="1.0" freespeed="1.0" capacity="1.0" permlanes="1.0" oneway="1" />
		<link id="36" from="9" to="19" length="1.0" freespeed="1.0" capacity="1.0" permlanes="1.0" oneway="1" />
		<link id="67" from="18" to="27" length="1.4142135623730951" freespeed="1.0" capacity="1.0" permlanes="1.0" oneway="1" />
		<link id="174" from="47" to="56" length="1.4142135623730951" freespeed="1.0" capacity="1.0" permlanes="1.0" oneway="1" />
		<link id="280" from="75" to="86" length="1.4142135623730951" freespeed="1.0" capacity="1.0" permlanes="1.0" oneway="1" />
		<link id="172" from="46" to="47" length="1.0" freespeed="1.0" capacity="1.0" permlanes="1.0" oneway="1" />
		<link id="165" from="44" to="55" length="1.4142135623730951" freespeed="1.0" capacity="1.0" permlanes="1.0" oneway="1" />
		<link id="341" from="98" to="99" length="1.0" freespeed="1.0" capacity="1.0" permlanes="1.0" oneway="1" />
		<link id="283" from="76" to="77" length="1.0" freespeed="1.0" capacity="1.0" permlanes="1.0" oneway="1" />
		<link id="15" from="3" to="13" length="1.0" freespeed="1.0" capacity="1.0" permlanes="1.0" oneway="1" />
		<link id="57" from="15" to="16" length="1.0" freespeed="1.0" capacity="1.0" permlanes="1.0" oneway="1" />
		<link id="5" from="1" to="12" length="1.4142135623730951" freespeed="1.0" capacity="1.0" permlanes="1.0" oneway="1" />
		<link id="84" from="23" to="32" length="1.4142135623730951" freespeed="1.0" capacity="1.0" permlanes="1.0" oneway="1" />
		<link id="8" from="2" to="3" length="1.0" freespeed="1.0" capacity="1.0" permlanes="1.0" oneway="1" />
		<link id="23" from="5" to="15" length="1.0" freespeed="1.0" capacity="1.0" permlanes="1.0" oneway="1" />
		<link id="207" from="56" to="65" length="1.4142135623730951" freespeed="1.0" capacity="1.0" permlanes="1.0" oneway="1" />
		<link id="262" from="70" to="80" length="1.0" freespeed="1.0" capacity="1.0" permlanes="1.0" oneway="1" />
		<link id="272" from="73" to="84" length="1.4142135623730951" freespeed="1.0" capacity="1.0" permlanes="1.0" oneway="1" />
		<link id="19" from="4" to="14" length="1.0" freespeed="1.0" capacity="1.0" permlanes="1.0" oneway="1" />
		<link id="123" from="33" to="34" length="1.0" freespeed="1.0" capacity="1.0" permlanes="1.0" oneway="1" />
		<link id="91" from="24" to="35" length="1.4142135623730951" freespeed="1.0" capacity="1.0" permlanes="1.0" oneway="1" />
		<link id="22" from="6" to="15" length="1.4142135623730951" freespeed="1.0" capacity="1.0" permlanes="1.0" oneway="1" />
		<link id="171" from="45" to="55" length="1.0" freespeed="1.0" capacity="1.0" permlanes="1.0" oneway="1" />
		<link id="331" from="88" to="98" length="1.0" freespeed="1.0" capacity="1.0" permlanes="1.0" oneway="1" />
		<link id="304" from="82" to="83" length="1.0" freespeed="1.0" capacity="1.0" permlanes="1.0" oneway="1" />
		<link id="98" from="26" to="27" length="1.0" freespeed="1.0" capacity="1.0" permlanes="1.0" oneway="1" />
		<link id="105" from="27" to="37" length="1.0" freespeed="1.0" capacity="1.0" permlanes="1.0" oneway="1" />
		<link id="34" from="9" to="18" length="1.4142135623730951" freespeed="1.0" capacity="1.0" permlanes="1.0" oneway="1" />
		<link id="42" from="11" to="22" length="1.4142135623730951" freespeed="1.0" capacity="1.0" permlanes="1.0" oneway="1" />
		<link id="104" from="28" to="37" length="1.4142135623730951" freespeed="1.0" capacity="1.0" permlanes="1.0" oneway="1" />
		<link id="329" from="88" to="99" length="1.4142135623730951" freespeed="1.0" capacity="1.0" permlanes="1.0" oneway="1" />
		<link id="35" from="8" to="18" length="1.0" freespeed="1.0" capacity="1.0" permlanes="1.0" oneway="1" />
		<link id="85" from="22" to="32" length="1.0" freespeed="1.0" capacity="1.0" permlanes="1.0" oneway="1" />
		<link id="16" from="4" to="5" length="1.0" freespeed="1.0" capacity="1.0" permlanes="1.0" oneway="1" />
		<link id="228" from="62" to="71" length="1.4142135623730951" freespeed="1.0" capacity="1.0" permlanes="1.0" oneway="1" />
		<link id="313" from="84" to="95" length="1.4142135623730951" freespeed="1.0" capacity="1.0" permlanes="1.0" oneway="1" />
		<link id="338" from="95" to="96" length="1.0" freespeed="1.0" capacity="1.0" permlanes="1.0" oneway="1" />
		<link id="293" from="79" to="88" length="1.4142135623730951" freespeed="1.0" capacity="1.0" permlanes="1.0" oneway="1" />
		<link id="136" from="36" to="47" length="1.4142135623730951" freespeed="1.0" capacity="1.0" permlanes="1.0" oneway="1" />
		<link id="149" from="40" to="51" length="1.4142135623730951" freespeed="1.0" capacity="1.0" permlanes="1.0" oneway="1" />
		<link id="306" from="83" to="92" length="1.4142135623730951" freespeed="1.0" capacity="1.0" permlanes="1.0" oneway="1" />
		<link id="97" from="25" to="35" length="1.0" freespeed="1.0" capacity="1.0" permlanes="1.0" oneway="1" />
		<link id="27" from="6" to="16" length="1.0" freespeed="1.0" capacity="1.0" permlanes="1.0" oneway="1" />
		<link id="92" from="25" to="34" length="1.4142135623730951" freespeed="1.0" capacity="1.0" permlanes="1.0" oneway="1" />
		<link id="199" from="54" to="63" length="1.4142135623730951" freespeed="1.0" capacity="1.0" permlanes="1.0" oneway="1" />
		<link id="222" from="60" to="61" length="1.0" freespeed="1.0" capacity="1.0" permlanes="1.0" oneway="1" />
		<link id="2" from="1" to="10" length="1.4142135623730951" freespeed="1.0" capacity="1.0" permlanes="1.0" oneway="1" />
		<link id="61" from="16" to="17" length="1.0" freespeed="1.0" capacity="1.0" permlanes="1.0" oneway="1" />
		<link id="200" from="53" to="63" length="1.0" freespeed="1.0" capacity="1.0" permlanes="1.0" oneway="1" />
		<link id="157" from="42" to="53" length="1.4142135623730951" freespeed="1.0" capacity="1.0" permlanes="1.0" oneway="1" />
		<link id="282" from="75" to="85" length="1.0" freespeed="1.0" capacity="1.0" permlanes="1.0" oneway="1" />
		<link id="309" from="83" to="94" length="1.4142135623730951" freespeed="1.0" capacity="1.0" permlanes="1.0" oneway="1" />
		<link id="152" from="41" to="42" length="1.0" freespeed="1.0" capacity="1.0" permlanes="1.0" oneway="1" />
		<link id="71" from="19" to="28" length="1.4142135623730951" freespeed="1.0" capacity="1.0" permlanes="1.0" oneway="1" />
		<link id="63" from="17" to="26" length="1.4142135623730951" freespeed="1.0" capacity="1.0" permlanes="1.0" oneway="1" />
		<link id="188" from="50" to="60" length="1.0" freespeed="1.0" capacity="1.0" permlanes="1.0" oneway="1" />
		<link id="308" from="83" to="84" length="1.0" freespeed="1.0" capacity="1.0" permlanes="1.0" oneway="1" />
		<link id="21" from="5" to="16" length="1.4142135623730951" freespeed="1.0" capacity="1.0" permlanes="1.0" oneway="1" />
		<link id="194" from="52" to="63" length="1.4142135623730951" freespeed="1.0" capacity="1.0" permlanes="1.0" oneway="1" />
		<link id="26" from="7" to="16" length="1.4142135623730951" freespeed="1.0" capacity="1.0" permlanes="1.0" oneway="1" />
		<link id="185" from="50" to="51" length="1.0" freespeed="1.0" capacity="1.0" permlanes="1.0" oneway="1" />
		<link id="323" from="86" to="96" length="1.0" freespeed="1.0" capacity="1.0" permlanes="1.0" oneway="1" />
		<link id="81" from="21" to="31" length="1.0" freespeed="1.0" capacity="1.0" permlanes="1.0" oneway="1" />
		<link id="209" from="56" to="57" length="1.0" freespeed="1.0" capacity="1.0" permlanes="1.0" oneway="1" />
		<link id="31" from="7" to="17" length="1.0" freespeed="1.0" capacity="1.0" permlanes="1.0" oneway="1" />
		<link id="259" from="70" to="71" length="1.0" freespeed="1.0" capacity="1.0" permlanes="1.0" oneway="1" />
		<link id="312" from="84" to="85" length="1.0" freespeed="1.0" capacity="1.0" permlanes="1.0" oneway="1" />
		<link id="261" from="71" to="80" length="1.4142135623730951" freespeed="1.0" capacity="1.0" permlanes="1.0" oneway="1" />
		<link id="265" from="72" to="81" length="1.4142135623730951" freespeed="1.0" capacity="1.0" permlanes="1.0" oneway="1" />
		<link id="78" from="21" to="22" length="1.0" freespeed="1.0" capacity="1.0" permlanes="1.0" oneway="1" />
		<link id="229" from="61" to="71" length="1.0" freespeed="1.0" capacity="1.0" permlanes="1.0" oneway="1" />
		<link id="240" from="65" to="74" length="1.4142135623730951" freespeed="1.0" capacity="1.0" permlanes="1.0" oneway="1" />
		<link id="241" from="64" to="74" length="1.0" freespeed="1.0" capacity="1.0" permlanes="1.0" oneway="1" />
		<link id="43" from="12" to="21" length="1.4142135623730951" freespeed="1.0" capacity="1.0" permlanes="1.0" oneway="1" />
		<link id="167" from="44" to="54" length="1.0" freespeed="1.0" capacity="1.0" permlanes="1.0" oneway="1" />
		<link id="204" from="54" to="64" length="1.0" freespeed="1.0" capacity="1.0" permlanes="1.0" oneway="1" />
		<link id="129" from="35" to="44" length="1.4142135623730951" freespeed="1.0" capacity="1.0" permlanes="1.0" oneway="1" />
		<link id="297" from="80" to="91" length="1.4142135623730951" freespeed="1.0" capacity="1.0" permlanes="1.0" oneway="1" />
		<link id="117" from="32" to="41" length="1.4142135623730951" freespeed="1.0" capacity="1.0" permlanes="1.0" oneway="1" />
		<link id="180" from="48" to="49" length="1.0" freespeed="1.0" capacity="1.0" permlanes="1.0" oneway="1" />
		<link id="266" from="71" to="81" length="1.0" freespeed="1.0" capacity="1.0" permlanes="1.0" oneway="1" />
		<link id="227" from="61" to="72" length="1.4142135623730951" freespeed="1.0" capacity="1.0" permlanes="1.0" oneway="1" />
		<link id="76" from="21" to="30" length="1.4142135623730951" freespeed="1.0" capacity="1.0" permlanes="1.0" oneway="1" />
		<link id="60" from="15" to="25" length="1.0" freespeed="1.0" capacity="1.0" permlanes="1.0" oneway="1" />
		<link id="89" from="23" to="33" length="1.0" freespeed="1.0" capacity="1.0" permlanes="1.0" oneway="1" />
		<link id="246" from="66" to="67" length="1.0" freespeed="1.0" capacity="1.0" permlanes="1.0" oneway="1" />
		<link id="56" from="14" to="24" length="1.0" freespeed="1.0" capacity="1.0" permlanes="1.0" oneway="1" />
		<link id="147" from="39" to="49" length="1.0" freespeed="1.0" capacity="1.0" permlanes="1.0" oneway="1" />
		<link id="94" from="25" to="26" length="1.0" freespeed="1.0" capacity="1.0" permlanes="1.0" oneway="1" />
		<link id="125" from="34" to="43" length="1.4142135623730951" freespeed="1.0" capacity="1.0" permlanes="1.0" oneway="1" />
		<link id="291" from="78" to="79" length="1.0" freespeed="1.0" capacity="1.0" permlanes="1.0" oneway="1" />
		<link id="80" from="22" to="31" length="1.4142135623730951" freespeed="1.0" capacity="1.0" permlanes="1.0" oneway="1" />
		<link id="247" from="66" to="77" length="1.4142135623730951" freespeed="1.0" capacity="1.0" permlanes="1.0" oneway="1" />
		<link id="271" from="73" to="74" length="1.0" freespeed="1.0" capacity="1.0" permlanes="1.0" oneway="1" />
		<link id="300" from="81" to="82" length="1.0" freespeed="1.0" capacity="1.0" permlanes="1.0" oneway="1" />
		<link id="295" from="79" to="89" length="1.0" freespeed="1.0" capacity="1.0" permlanes="1.0" oneway="1" />
		<link id="138" from="36" to="46" length="1.0" freespeed="1.0" capacity="1.0" permlanes="1.0" oneway="1" />
		<link id="201" from="54" to="55" length="1.0" freespeed="1.0" capacity="1.0" permlanes="1.0" oneway="1" />
		<link id="143" from="38" to="39" length="1.0" freespeed="1.0" capacity="1.0" permlanes="1.0" oneway="1" />
		<link id="205" from="55" to="56" length="1.0" freespeed="1.0" capacity="1.0" permlanes="1.0" oneway="1" />
		<link id="236" from="64" to="73" length="1.4142135623730951" freespeed="1.0" capacity="1.0" permlanes="1.0" oneway="1" />
		<link id="250" from="67" to="68" length="1.0" freespeed="1.0" capacity="1.0" permlanes="1.0" oneway="1" />
		<link id="324" from="87" to="88" length="1.0" freespeed="1.0" capacity="1.0" permlanes="1.0" oneway="1" />
		<link id="38" from="10" to="21" length="1.4142135623730951" freespeed="1.0" capacity="1.0" permlanes="1.0" oneway="1" />
		<link id="62" from="16" to="27" length="1.4142135623730951" freespeed="1.0" capacity="1.0" permlanes="1.0" oneway="1" />
		<link id="108" from="29" to="38" length="1.4142135623730951" freespeed="1.0" capacity="1.0" permlanes="1.0" oneway="1" />
		<link id="90" from="24" to="25" length="1.0" freespeed="1.0" capacity="1.0" permlanes="1.0" oneway="1" />
		<link id="59" from="16" to="25" length="1.4142135623730951" freespeed="1.0" capacity="1.0" permlanes="1.0" oneway="1" />
		<link id="77" from="20" to="30" length="1.0" freespeed="1.0" capacity="1.0" permlanes="1.0" oneway="1" />
		<link id="274" from="73" to="83" length="1.0" freespeed="1.0" capacity="1.0" permlanes="1.0" oneway="1" />
		<link id="242" from="65" to="66" length="1.0" freespeed="1.0" capacity="1.0" permlanes="1.0" oneway="1" />
		<link id="281" from="76" to="85" length="1.4142135623730951" freespeed="1.0" capacity="1.0" permlanes="1.0" oneway="1" />
		<link id="86" from="23" to="24" length="1.0" freespeed="1.0" capacity="1.0" permlanes="1.0" oneway="1" />
		<link id="155" from="41" to="51" length="1.0" freespeed="1.0" capacity="1.0" permlanes="1.0" oneway="1" />
		<link id="193" from="52" to="53" length="1.0" freespeed="1.0" capacity="1.0" permlanes="1.0" oneway="1" />
		<link id="101" from="26" to="36" length="1.0" freespeed="1.0" capacity="1.0" permlanes="1.0" oneway="1" />
		<link id="190" from="51" to="62" length="1.4142135623730951" freespeed="1.0" capacity="1.0" permlanes="1.0" oneway="1" />
		<link id="169" from="45" to="56" length="1.4142135623730951" freespeed="1.0" capacity="1.0" permlanes="1.0" oneway="1" />
		<link id="102" from="27" to="28" length="1.0" freespeed="1.0" capacity="1.0" permlanes="1.0" oneway="1" />
		<link id="140" from="37" to="48" length="1.4142135623730951" freespeed="1.0" capacity="1.0" permlanes="1.0" oneway="1" />
		<link id="288" from="77" to="88" length="1.4142135623730951" freespeed="1.0" capacity="1.0" permlanes="1.0" oneway="1" />
		<link id="182" from="49" to="58" length="1.4142135623730951" freespeed="1.0" capacity="1.0" permlanes="1.0" oneway="1" />
		<link id="54" from="14" to="25" length="1.4142135623730951" freespeed="1.0" capacity="1.0" permlanes="1.0" oneway="1" />
		<link id="322" from="87" to="96" length="1.4142135623730951" freespeed="1.0" capacity="1.0" permlanes="1.0" oneway="1" />
		<link id="12" from="3" to="4" length="1.0" freespeed="1.0" capacity="1.0" permlanes="1.0" oneway="1" />
		<link id="51" from="14" to="23" length="1.4142135623730951" freespeed="1.0" capacity="1.0" permlanes="1.0" oneway="1" />
		<link id="217" from="58" to="59" length="1.0" freespeed="1.0" capacity="1.0" permlanes="1.0" oneway="1" />
		<link id="273" from="74" to="83" length="1.4142135623730951" freespeed="1.0" capacity="1.0" permlanes="1.0" oneway="1" />
		<link id="18" from="5" to="14" length="1.4142135623730951" freespeed="1.0" capacity="1.0" permlanes="1.0" oneway="1" />
		<link id="114" from="30" to="40" length="1.0" freespeed="1.0" capacity="1.0" permlanes="1.0" oneway="1" />
		<link id="223" from="60" to="71" length="1.4142135623730951" freespeed="1.0" capacity="1.0" permlanes="1.0" oneway="1" />
		<link id="46" from="12" to="23" length="1.4142135623730951" freespeed="1.0" capacity="1.0" permlanes="1.0" oneway="1" />
		<link id="275" from="74" to="75" length="1.0" freespeed="1.0" capacity="1.0" permlanes="1.0" oneway="1" />
		<link id="235" from="63" to="74" length="1.4142135623730951" freespeed="1.0" capacity="1.0" permlanes="1.0" oneway="1" />
		<link id="191" from="52" to="61" length="1.4142135623730951" freespeed="1.0" capacity="1.0" permlanes="1.0" oneway="1" />
		<link id="116" from="31" to="42" length="1.4142135623730951" freespeed="1.0" capacity="1.0" permlanes="1.0" oneway="1" />
		<link id="29" from="7" to="18" length="1.4142135623730951" freespeed="1.0" capacity="1.0" permlanes="1.0" oneway="1" />
		<link id="213" from="57" to="58" length="1.0" freespeed="1.0" capacity="1.0" permlanes="1.0" oneway="1" />
		<link id="202" from="54" to="65" length="1.4142135623730951" freespeed="1.0" capacity="1.0" permlanes="1.0" oneway="1" />
		<link id="289" from="78" to="87" length="1.4142135623730951" freespeed="1.0" capacity="1.0" permlanes="1.0" oneway="1" />
		<link id="50" from="13" to="24" length="1.4142135623730951" freespeed="1.0" capacity="1.0" permlanes="1.0" oneway="1" />
		<link id="65" from="17" to="18" length="1.0" freespeed="1.0" capacity="1.0" permlanes="1.0" oneway="1" />
		<link id="216" from="57" to="67" length="1.0" freespeed="1.0" capacity="1.0" permlanes="1.0" oneway="1" />
		<link id="243" from="65" to="76" length="1.4142135623730951" freespeed="1.0" capacity="1.0" permlanes="1.0" oneway="1" />
		<link id="146" from="38" to="48" length="1.0" freespeed="1.0" capacity="1.0" permlanes="1.0" oneway="1" />
		<link id="150" from="41" to="50" length="1.4142135623730951" freespeed="1.0" capacity="1.0" permlanes="1.0" oneway="1" />
		<link id="296" from="80" to="81" length="1.0" freespeed="1.0" capacity="1.0" permlanes="1.0" oneway="1" />
		<link id="333" from="90" to="91" length="1.0" freespeed="1.0" capacity="1.0" permlanes="1.0" oneway="1" />
		<link id="93" from="24" to="34" length="1.0" freespeed="1.0" capacity="1.0" permlanes="1.0" oneway="1" />
		<link id="248" from="67" to="76" length="1.4142135623730951" freespeed="1.0" capacity="1.0" permlanes="1.0" oneway="1" />
		<link id="307" from="82" to="92" length="1.0" freespeed="1.0" capacity="1.0" permlanes="1.0" oneway="1" />
		<link id="225" from="60" to="70" length="1.0" freespeed="1.0" capacity="1.0" permlanes="1.0" oneway="1" />
		<link id="232" from="63" to="72" length="1.4142135623730951" freespeed="1.0" capacity="1.0" permlanes="1.0" oneway="1" />
		<link id="285" from="77" to="86" length="1.4142135623730951" freespeed="1.0" capacity="1.0" permlanes="1.0" oneway="1" />
		<link id="37" from="10" to="11" length="1.0" freespeed="1.0" capacity="1.0" permlanes="1.0" oneway="1" />
		<link id="96" from="26" to="35" length="1.4142135623730951" freespeed="1.0" capacity="1.0" permlanes="1.0" oneway="1" />
		<link id="148" from="40" to="41" length="1.0" freespeed="1.0" capacity="1.0" permlanes="1.0" oneway="1" />
		<link id="44" from="11" to="21" length="1.0" freespeed="1.0" capacity="1.0" permlanes="1.0" oneway="1" />
		<link id="4" from="1" to="2" length="1.0" freespeed="1.0" capacity="1.0" permlanes="1.0" oneway="1" />
		<link id="277" from="75" to="84" length="1.4142135623730951" freespeed="1.0" capacity="1.0" permlanes="1.0" oneway="1" />