<?xml version="1.0" encoding="UTF-8"?>
<!DOCTYPE network SYSTEM "http://www.matsim.org/files/dtd/network_v1.dtd">
<network xml:lang="en" >
	<nodes>
		<node id="0" x="0.0" y="0.0" />
		<node id="1" x="0.0" y="1.0" />
		<node id="2" x="0.0" y="2.0" />
		<node id="3" x="0.0" y="3.0" />
		<node id="4" x="0.0" y="4.0" />
		<node id="5" x="0.0" y="5.0" />
		<node id="6" x="0.0" y="6.0" />
		<node id="7" x="0.0" y="7.0" />
		<node id="8" x="0.0" y="8.0" />
		<node id="9" x="0.0" y="9.0" />
		<node id="10" x="1.0" y="0.0" />
		<node id="11" x="1.0" y="1.0" />
		<node id="12" x="1.0" y="2.0" />
		<node id="13" x="1.0" y="3.0" />
		<node id="14" x="1.0" y="4.0" />
		<node id="15" x="1.0" y="5.0" />
		<node id="16" x="1.0" y="6.0" />
		<node id="17" x="1.0" y="7.0" />
		<node id="18" x="1.0" y="8.0" />
		<node id="19" x="1.0" y="9.0" />
		<node id="20" x="2.0" y="0.0" />
		<node id="21" x="2.0" y="1.0" />
		<node id="22" x="2.0" y="2.0" />
		<node id="23" x="2.0" y="3.0" />
		<node id="24" x="2.0" y="4.0" />
		<node id="25" x="2.0" y="5.0" />
		<node id="26" x="2.0" y="6.0" />
		<node id="27" x="2.0" y="7.0" />
		<node id="28" x="2.0" y="8.0" />
		<node id="29" x="2.0" y="9.0" />
		<node id="30" x="3.0" y="0.0" />
		<node id="31" x="3.0" y="1.0" />
		<node id="32" x="3.0" y="2.0" />
		<node id="33" x="3.0" y="3.0" />
		<node id="34" x="3.0" y="4.0" />
		<node id="35" x="3.0" y="5.0" />
		<node id="36" x="3.0" y="6.0" />
		<node id="37" x="3.0" y="7.0" />
		<node id="38" x="3.0" y="8.0" />
		<node id="39" x="3.0" y="9.0" />
		<node id="40" x="4.0" y="0.0" />
		<node id="41" x="4.0" y="1.0" />
		<node id="42" x="4.0" y="2.0" />
		<node id="43" x="4.0" y="3.0" />
		<node id="44" x="4.0" y="4.0" />
		<node id="45" x="4.0" y="5.0" />
		<node id="46" x="4.0" y="6.0" />
		<node id="47" x="4.0" y="7.0" />
		<node id="48" x="4.0" y="8.0" />
		<node id="49" x="4.0" y="9.0" />
		<node id="50" x="5.0" y="0.0" />
		<node id="51" x="5.0" y="1.0" />
		<node id="52" x="5.0" y="2.0" />
		<node id="53" x="5.0" y="3.0" />
		<node id="54" x="5.0" y="4.0" />
		<node id="55" x="5.0" y="5.0" />
		<node id="56" x="5.0" y="6.0" />
		<node id="57" x="5.0" y="7.0" />
		<node id="58" x="5.0" y="8.0" />
		<node id="59" x="5.0" y="9.0" />
		<node id="60" x="6.0" y="0.0" />
		<node id="61" x="6.0" y="1.0" />
		<node id="62" x="6.0" y="2.0" />
		<node id="63" x="6.0" y="3.0" />
		<node id="64" x="6.0" y="4.0" />
		<node id="65" x="6.0" y="5.0" />
		<node id="66" x="6.0" y="6.0" />
		<node id="67" x="6.0" y="7.0" />
		<node id="68" x="6.0" y="8.0" />
		<node id="69" x="6.0" y="9.0" />
		<node id="70" x="7.0" y="0.0" />
		<node id="71" x="7.0" y="1.0" />
		<node id="72" x="7.0" y="2.0" />
		<node id="73" x="7.0" y="3.0" />
		<node id="74" x="7.0" y="4.0" />
		<node id="75" x="7.0" y="5.0" />
		<node id="76" x="7.0" y="6.0" />
		<node id="77" x="7.0" y="7.0" />
		<node id="78" x="7.0" y="8.0" />
		<node id="79" x="7.0" y="9.0" />
		<node id="80" x="8.0" y="0.0" />
		<node id="81" x="8.0" y="1.0" />
		<node id="82" x="8.0" y="2.0" />
		<node id="83" x="8.0" y="3.0" />
		<node id="84" x="8.0" y="4.0" />
		<node id="85" x="8.0" y="5.0" />
		<node id="86" x="8.0" y="6.0" />
		<node id="87" x="8.0" y="7.0" />
		<node id="88" x="8.0" y="8.0" />
		<node id="89" x="8.0" y="9.0" />
		<node id="90" x="9.0" y="0.0" />
		<node id="91" x="9.0" y="1.0" />
		<node id="92" x="9.0" y="2.0" />
		<node id="93" x="9.0" y="3.0" />
		<node id="94" x="9.0" y="4.0" />
		<node id="95" x="9.0" y="5.0" />
		<node id="96" x="9.0" y="6.0" />
		<node id="97" x="9.0" y="7.0" />
		<node id="98" x="9.0" y="8.0" />
		<node id="99" x="9.0" y="9.0" />
	</nodes>
	<links capperiod="01:00:00" effectivecellsize="7.5" effectivelanewidth="3.75" >
		<link id="374" from="82" to="91" length="1.4142135623730951" freespeed="1.0" capacity="1.0" permlanes="1.0" oneway="1" />
		<link id="150" from="21" to="22" length="1.0" freespeed="1.0" capacity="1.0" permlanes="1.0" oneway="1" />
		<link id="375" from="81" to="91" length="1.0" freespeed="1.0" capacity="1.0" permlanes="1.0" oneway="1" />
		<link id="141" from="18" to="19" length="1.0" freespeed="1.0" capacity="1.0" permlanes="1.0" oneway="1" />
		<link id="165" from="24" to="34" length="1.0" freespeed="1.0" capacity="1.0" permlanes="1.0" oneway="1" />
		<link id="174" from="27" to="28" length="1.0" freespeed="1.0" capacity="1.0" permlanes="1.0" oneway="1" />
		<link id="162" from="24" to="25" length="1.0" freespeed="1.0" capacity="1.0" permlanes="1.0" oneway="1" />
		<link id="169" from="25" to="35" length="1.0" freespeed="1.0" capacity="1.0" permlanes="1.0" oneway="1" />
		<link id="355" from="76" to="77" length="1.0" freespeed="1.0" capacity="1.0" permlanes="1.0" oneway="1" />
		<link id="190" from="31" to="41" length="1.0" freespeed="1.0" capacity="1.0" permlanes="1.0" oneway="1" />
		<link id="366" from="78" to="88" length="1.0" freespeed="1.0" capacity="1.0" permlanes="1.0" oneway="1" />
		<link id="196" from="33" to="44" length="1.4142135623730951" freespeed="1.0" capacity="1.0" permlanes="1.0" oneway="1" />
		<link id="211" from="37" to="38" length="1.0" freespeed="1.0" capacity="1.0" permlanes="1.0" oneway="1" />
		<link id="344" from="73" to="84" length="1.4142135623730951" freespeed="1.0" capacity="1.0" permlanes="1.0" oneway="1" />
		<link id="145" from="19" to="29" length="1.0" freespeed="1.0" capacity="1.0" permlanes="1.0" oneway="1" />
		<link id="172" from="27" to="36" length="1.4142135623730951" freespeed="1.0" capacity="1.0" permlanes="1.0" oneway="1" />
		<link id="351" from="75" to="76" length="1.0" freespeed="1.0" capacity="1.0" permlanes="1.0" oneway="1" />
		<link id="369" from="80" to="91" length="1.4142135623730951" freespeed="1.0" capacity="1.0" permlanes="1.0" oneway="1" />
		<link id="380" from="83" to="84" length="1.0" freespeed="1.0" capacity="1.0" permlanes="1.0" oneway="1" />
		<link id="309" from="63" to="73" length="1.0" freespeed="1.0" capacity="1.0" permlanes="1.0" oneway="1" />
		<link id="335" from="71" to="72" length="1.0" freespeed="1.0" capacity="1.0" permlanes="1.0" oneway="1" />
		<link id="109" from="10" to="11" length="1.0" freespeed="1.0" capacity="1.0" permlanes="1.0" oneway="1" />
		<link id="348" from="74" to="85" length="1.4142135623730951" freespeed="1.0" capacity="1.0" permlanes="1.0" oneway="1" />
		<link id="154" from="22" to="23" length="1.0" freespeed="1.0" capacity="1.0" permlanes="1.0" oneway="1" />
		<link id="345" from="74" to="83" length="1.4142135623730951" freespeed="1.0" capacity="1.0" permlanes="1.0" oneway="1" />
		<link id="133" from="16" to="17" length="1.0" freespeed="1.0" capacity="1.0" permlanes="1.0" oneway="1" />
		<link id="160" from="24" to="33" length="1.4142135623730951" freespeed="1.0" capacity="1.0" permlanes="1.0" oneway="1" />
		<link id="236" from="44" to="45" length="1.0" freespeed="1.0" capacity="1.0" permlanes="1.0" oneway="1" />
		<link id="254" from="49" to="58" length="1.4142135623730951" freespeed="1.0" capacity="1.0" permlanes="1.0" oneway="1" />
		<link id="378" from="83" to="92" length="1.4142135623730951" freespeed="1.0" capacity="1.0" permlanes="1.0" oneway="1" />
		<link id="328" from="69" to="78" length="1.4142135623730951" freespeed="1.0" capacity="1.0" permlanes="1.0" oneway="1" />
		<link id="347" from="74" to="75" length="1.0" freespeed="1.0" capacity="1.0" permlanes="1.0" oneway="1" />
		<link id="308" from="64" to="73" length="1.4142135623730951" freespeed="1.0" capacity="1.0" permlanes="1.0" oneway="1" />
		<link id="324" from="68" to="77" length="1.4142135623730951" freespeed="1.0" capacity="1.0" permlanes="1.0" oneway="1" />
		<link id="261" from="51" to="52" length="1.0" freespeed="1.0" capacity="1.0" permlanes="1.0" oneway="1" />
		<link id="149" from="20" to="30" length="1.0" freespeed="1.0" capacity="1.0" permlanes="1.0" oneway="1" />
		<link id="329" from="68" to="78" length="1.0" freespeed="1.0" capacity="1.0" permlanes="1.0" oneway="1" />
		<link id="98" from="7" to="16" length="1.4142135623730951" freespeed="1.0" capacity="1.0" permlanes="1.0" oneway="1" />
		<link id="410" from="95" to="96" length="1.0" freespeed="1.0" capacity="1.0" permlanes="1.0" oneway="1" />
		<link id="112" from="10" to="20" length="1.0" freespeed="1.0" capacity="1.0" permlanes="1.0" oneway="1" />
		<link id="331" from="70" to="71" length="1.0" freespeed="1.0" capacity="1.0" permlanes="1.0" oneway="1" />
		<link id="142" from="18" to="29" length="1.4142135623730951" freespeed="1.0" capacity="1.0" permlanes="1.0" oneway="1" />
		<link id="161" from="23" to="33" length="1.0" freespeed="1.0" capacity="1.0" permlanes="1.0" oneway="1" />
		<link id="314" from="65" to="66" length="1.0" freespeed="1.0" capacity="1.0" permlanes="1.0" oneway="1" />
		<link id="78" from="2" to="11" length="1.4142135623730951" freespeed="1.0" capacity="1.0" permlanes="1.0" oneway="1" />
		<link id="79" from="1" to="11" length="1.0" freespeed="1.0" capacity="1.0" permlanes="1.0" oneway="1" />
		<link id="245" from="46" to="57" length="1.4142135623730951" freespeed="1.0" capacity="1.0" permlanes="1.0" oneway="1" />
		<link id="140" from="17" to="27" length="1.0" freespeed="1.0" capacity="1.0" permlanes="1.0" oneway="1" />
		<link id="219" from="39" to="49" length="1.0" freespeed="1.0" capacity="1.0" permlanes="1.0" oneway="1" />
		<link id="269" from="53" to="54" length="1.0" freespeed="1.0" capacity="1.0" permlanes="1.0" oneway="1" />
		<link id="216" from="38" to="49" length="1.4142135623730951" freespeed="1.0" capacity="1.0" permlanes="1.0" oneway="1" />
		<link id="409" from="94" to="95" length="1.0" freespeed="1.0" capacity="1.0" permlanes="1.0" oneway="1" />
		<link id="125" from="14" to="15" length="1.0" freespeed="1.0" capacity="1.0" permlanes="1.0" oneway="1" />
		<link id="384" from="84" to="85" length="1.0" freespeed="1.0" capacity="1.0" permlanes="1.0" oneway="1" />
		<link id="94" from="6" to="15" length="1.4142135623730951" freespeed="1.0" capacity="1.0" permlanes="1.0" oneway="1" />
		<link id="294" from="60" to="61" length="1.0" freespeed="1.0" capacity="1.0" permlanes="1.0" oneway="1" />
		<link id="372" from="81" to="82" length="1.0" freespeed="1.0" capacity="1.0" permlanes="1.0" oneway="1" />
		<link id="198" from="33" to="43" length="1.0" freespeed="1.0" capacity="1.0" permlanes="1.0" oneway="1" />
		<link id="287" from="58" to="67" length="1.4142135623730951" freespeed="1.0" capacity="1.0" permlanes="1.0" oneway="1" />
		<link id="103" from="7" to="17" length="1.0" freespeed="1.0" capacity="1.0" permlanes="1.0" oneway="1" />
		<link id="357" from="77" to="86" length="1.4142135623730951" freespeed="1.0" capacity="1.0" permlanes="1.0" oneway="1" />
		<link id="191" from="32" to="33" length="1.0" freespeed="1.0" capacity="1.0" permlanes="1.0" oneway="1" />
		<link id="113" from="11" to="12" length="1.0" freespeed="1.0" capacity="1.0" permlanes="1.0" oneway="1" />
		<link id="139" from="18" to="27" length="1.4142135623730951" freespeed="1.0" capacity="1.0" permlanes="1.0" oneway="1" />
		<link id="193" from="33" to="42" length="1.4142135623730951" freespeed="1.0" capacity="1.0" permlanes="1.0" oneway="1" />
		<link id="349" from="75" to="84" length="1.4142135623730951" freespeed="1.0" capacity="1.0" permlanes="1.0" oneway="1" />
		<link id="156" from="23" to="32" length="1.4142135623730951" freespeed="1.0" capacity="1.0" permlanes="1.0" oneway="1" />
		<link id="393" from="86" to="97" length="1.4142135623730951" freespeed="1.0" capacity="1.0" permlanes="1.0" oneway="1" />
		<link id="97" from="6" to="17" length="1.4142135623730951" freespeed="1.0" capacity="1.0" permlanes="1.0" oneway="1" />
		<link id="204" from="35" to="46" length="1.4142135623730951" freespeed="1.0" capacity="1.0" permlanes="1.0" oneway="1" />
		<link id="310" from="64" to="65" length="1.0" freespeed="1.0" capacity="1.0" permlanes="1.0" oneway="1" />
		<link id="202" from="34" to="44" length="1.0" freespeed="1.0" capacity="1.0" permlanes="1.0" oneway="1" />
		<link id="381" from="83" to="94" length="1.4142135623730951" freespeed="1.0" capacity="1.0" permlanes="1.0" oneway="1" />
		<link id="195" from="33" to="34" length="1.0" freespeed="1.0" capacity="1.0" permlanes="1.0" oneway="1" />
		<link id="371" from="80" to="90" length="1.0" freespeed="1.0" capacity="1.0" permlanes="1.0" oneway="1" />
		<link id="313" from="64" to="74" length="1.0" freespeed="1.0" capacity="1.0" permlanes="1.0" oneway="1" />
		<link id="87" from="3" to="13" length="1.0" freespeed="1.0" capacity="1.0" permlanes="1.0" oneway="1" />
		<link id="394" from="87" to="96" length="1.4142135623730951" freespeed="1.0" capacity="1.0" permlanes="1.0" oneway="1" />
		<link id="114" from="11" to="22" length="1.4142135623730951" freespeed="1.0" capacity="1.0" permlanes="1.0" oneway="1" />
		<link id="237" from="44" to="55" length="1.4142135623730951" freespeed="1.0" capacity="1.0" permlanes="1.0" oneway="1" />
		<link id="292" from="58" to="68" length="1.0" freespeed="1.0" capacity="1.0" permlanes="1.0" oneway="1" />
		<link id="302" from="62" to="63" length="1.0" freespeed="1.0" capacity="1.0" permlanes="1.0" oneway="1" />
		<link id="153" from="21" to="31" length="1.0" freespeed="1.0" capacity="1.0" permlanes="1.0" oneway="1" />
		<link id="121" from="13" to="14" length="1.0" freespeed="1.0" capacity="1.0" permlanes="1.0" oneway="1" />
		<link id="201" from="35" to="44" length="1.4142135623730951" freespeed="1.0" capacity="1.0" permlanes="1.0" oneway="1" />
		<link id="361" from="78" to="87" length="1.4142135623730951" freespeed="1.0" capacity="1.0" permlanes="1.0" oneway="1" />
		<link id="334" from="70" to="80" length="1.0" freespeed="1.0" capacity="1.0" permlanes="1.0" oneway="1" />
		<link id="128" from="14" to="24" length="1.0" freespeed="1.0" capacity="1.0" permlanes="1.0" oneway="1" />
		<link id="135" from="17" to="26" length="1.4142135623730951" freespeed="1.0" capacity="1.0" permlanes="1.0" oneway="1" />
		<link id="72" from="0" to="1" length="1.0" freespeed="1.0" capacity="1.0" permlanes="1.0" oneway="1" />
		<link id="134" from="16" to="27" length="1.4142135623730951" freespeed="1.0" capacity="1.0" permlanes="1.0" oneway="1" />
		<link id="359" from="77" to="78" length="1.0" freespeed="1.0" capacity="1.0" permlanes="1.0" oneway="1" />
		<link id="115" from="12" to="21" length="1.4142135623730951" freespeed="1.0" capacity="1.0" permlanes="1.0" oneway="1" />
		<link id="258" from="50" to="61" length="1.4142135623730951" freespeed="1.0" capacity="1.0" permlanes="1.0" oneway="1" />
		<link id="343" from="73" to="74" length="1.0" freespeed="1.0" capacity="1.0" permlanes="1.0" oneway="1" />
		<link id="368" from="80" to="81" length="1.0" freespeed="1.0" capacity="1.0" permlanes="1.0" oneway="1" />
		<link id="323" from="67" to="78" length="1.4142135623730951" freespeed="1.0" capacity="1.0" permlanes="1.0" oneway="1" />
		<link id="399" from="87" to="97" length="1.0" freespeed="1.0" capacity="1.0" permlanes="1.0" oneway="1" />
		<link id="166" from="25" to="26" length="1.0" freespeed="1.0" capacity="1.0" permlanes="1.0" oneway="1" />
		<link id="179" from="28" to="39" length="1.4142135623730951" freespeed="1.0" capacity="1.0" permlanes="1.0" oneway="1" />
		<link id="336" from="71" to="82" length="1.4142135623730951" freespeed="1.0" capacity="1.0" permlanes="1.0" oneway="1" />
		<link id="127" from="15" to="24" length="1.4142135623730951" freespeed="1.0" capacity="1.0" permlanes="1.0" oneway="1" />
		<link id="122" from="13" to="24" length="1.4142135623730951" freespeed="1.0" capacity="1.0" permlanes="1.0" oneway="1" />
		<link id="229" from="42" to="53" length="1.4142135623730951" freespeed="1.0" capacity="1.0" permlanes="1.0" oneway="1" />
		<link id="252" from="48" to="49" length="1.0" freespeed="1.0" capacity="1.0" permlanes="1.0" oneway="1" />
		<link id="91" from="4" to="14" length="1.0" freespeed="1.0" capacity="1.0" permlanes="1.0" oneway="1" />
		<link id="230" from="43" to="52" length="1.4142135623730951" freespeed="1.0" capacity="1.0" permlanes="1.0" oneway="1" />
		<link id="187" from="31" to="32" length="1.0" freespeed="1.0" capacity="1.0" permlanes="1.0" oneway="1" />
		<link id="312" from="65" to="74" length="1.4142135623730951" freespeed="1.0" capacity="1.0" permlanes="1.0" oneway="1" />
		<link id="339" from="72" to="73" length="1.0" freespeed="1.0" capacity="1.0" permlanes="1.0" oneway="1" />
		<link id="389" from="85" to="96" length="1.4142135623730951" freespeed="1.0" capacity="1.0" permlanes="1.0" oneway="1" />
		<link id="182" from="29" to="39" length="1.0" freespeed="1.0" capacity="1.0" permlanes="1.0" oneway="1" />
		<link id="385" from="84" to="95" length="1.4142135623730951" freespeed="1.0" capacity="1.0" permlanes="1.0" oneway="1" />
		<link id="101" from="7" to="18" length="1.4142135623730951" freespeed="1.0" capacity="1.0" permlanes="1.0" oneway="1" />
		<link id="93" from="5" to="16" length="1.4142135623730951" freespeed="1.0" capacity="1.0" permlanes="1.0" oneway="1" />
		<link id="218" from="38" to="48" length="1.0" freespeed="1.0" capacity="1.0" permlanes="1.0" oneway="1" />
		<link id="338" from="71" to="81" length="1.0" freespeed="1.0" capacity="1.0" permlanes="1.0" oneway="1" />
		<link id="224" from="41" to="42" length="1.0" freespeed="1.0" capacity="1.0" permlanes="1.0" oneway="1" />
		<link id="215" from="38" to="39" length="1.0" freespeed="1.0" capacity="1.0" permlanes="1.0" oneway="1" />
		<link id="353" from="76" to="85" length="1.4142135623730951" freespeed="1.0" capacity="1.0" permlanes="1.0" oneway="1" />
		<link id="111" from="11" to="20" length="1.4142135623730951" freespeed="1.0" capacity="1.0" permlanes="1.0" oneway="1" />
		<link id="239" from="44" to="54" length="1.0" freespeed="1.0" capacity="1.0" permlanes="1.0" oneway="1" />
		<link id="402" from="89" to="98" length="1.4142135623730951" freespeed="1.0" capacity="1.0" permlanes="1.0" oneway="1" />
		<link id="405" from="90" to="91" length="1.0" freespeed="1.0" capacity="1.0" permlanes="1.0" oneway="1" />
		<link id="289" from="58" to="59" length="1.0" freespeed="1.0" capacity="1.0" permlanes="1.0" oneway="1" />
		<link id="392" from="86" to="87" length="1.0" freespeed="1.0" capacity="1.0" permlanes="1.0" oneway="1" />
		<link id="342" from="72" to="82" length="1.0" freespeed="1.0" capacity="1.0" permlanes="1.0" oneway="1" />
		<link id="291" from="59" to="68" length="1.4142135623730951" freespeed="1.0" capacity="1.0" permlanes="1.0" oneway="1" />
		<link id="295" from="60" to="71" length="1.4142135623730951" freespeed="1.0" capacity="1.0" permlanes="1.0" oneway="1" />
		<link id="108" from="9" to="19" length="1.0" freespeed="1.0" capacity="1.0" permlanes="1.0" oneway="1" />
		<link id="259" from="51" to="60" length="1.4142135623730951" freespeed="1.0" capacity="1.0" permlanes="1.0" oneway="1" />
		<link id="270" from="53" to="64" length="1.4142135623730951" freespeed="1.0" capacity="1.0" permlanes="1.0" oneway="1" />
		<link id="271" from="54" to="63" length="1.4142135623730951" freespeed="1.0" capacity="1.0" permlanes="1.0" oneway="1" />
		<link id="73" from="0" to="11" length="1.4142135623730951" freespeed="1.0" capacity="1.0" permlanes="1.0" oneway="1" />
		<link id="197" from="34" to="43" length="1.4142135623730951" freespeed="1.0" capacity="1.0" permlanes="1.0" oneway="1" />
		<link id="234" from="44" to="53" length="1.4142135623730951" freespeed="1.0" capacity="1.0" permlanes="1.0" oneway="1" />
		<link id="159" from="23" to="34" length="1.4142135623730951" freespeed="1.0" capacity="1.0" permlanes="1.0" oneway="1" />
		<link id="327" from="68" to="79" length="1.4142135623730951" freespeed="1.0" capacity="1.0" permlanes="1.0" oneway="1" />
		<link id="147" from="20" to="31" length="1.4142135623730951" freespeed="1.0" capacity="1.0" permlanes="1.0" oneway="1" />
		<link id="210" from="36" to="46" length="1.0" freespeed="1.0" capacity="1.0" permlanes="1.0" oneway="1" />
		<link id="296" from="61" to="70" length="1.4142135623730951" freespeed="1.0" capacity="1.0" permlanes="1.0" oneway="1" />
		<link id="257" from="50" to="51" length="1.0" freespeed="1.0" capacity="1.0" permlanes="1.0" oneway="1" />
		<link id="106" from="9" to="18" length="1.4142135623730951" freespeed="1.0" capacity="1.0" permlanes="1.0" oneway="1" />
		<link id="90" from="5" to="14" length="1.4142135623730951" freespeed="1.0" capacity="1.0" permlanes="1.0" oneway="1" />
		<link id="119" from="13" to="22" length="1.4142135623730951" freespeed="1.0" capacity="1.0" permlanes="1.0" oneway="1" />
		<link id="276" from="54" to="64" length="1.0" freespeed="1.0" capacity="1.0" permlanes="1.0" oneway="1" />
		<link id="86" from="4" to="13" length="1.4142135623730951" freespeed="1.0" capacity="1.0" permlanes="1.0" oneway="1" />
		<link id="177" from="27" to="37" length="1.0" freespeed="1.0" capacity="1.0" permlanes="1.0" oneway="1" />
		<link id="404" from="89" to="99" length="1.0" freespeed="1.0" capacity="1.0" permlanes="1.0" oneway="1" />
		<link id="124" from="13" to="23" length="1.0" freespeed="1.0" capacity="1.0" permlanes="1.0" oneway="1" />
		<link id="155" from="22" to="33" length="1.4142135623730951" freespeed="1.0" capacity="1.0" permlanes="1.0" oneway="1" />
		<link id="321" from="66" to="76" length="1.0" freespeed="1.0" capacity="1.0" permlanes="1.0" oneway="1" />
		<link id="110" from="10" to="21" length="1.4142135623730951" freespeed="1.0" capacity="1.0" permlanes="1.0" oneway="1" />
		<link id="277" from="55" to="56" length="1.0" freespeed="1.0" capacity="1.0" permlanes="1.0" oneway="1" />
		<link id="301" from="61" to="71" length="1.0" freespeed="1.0" capacity="1.0" permlanes="1.0" oneway="1" />
		<link id="330" from="69" to="79" length="1.0" freespeed="1.0" capacity="1.0" permlanes="1.0" oneway="1" />
		<link id="408" from="93" to="94" length="1.0" freespeed="1.0" capacity="1.0" permlanes="1.0" oneway="1" />
		<link id="325" from="67" to="77" length="1.0" freespeed="1.0" capacity="1.0" permlanes="1.0" oneway="1" />
		<link id="168" from="26" to="35" length="1.4142135623730951" freespeed="1.0" capacity="1.0" permlanes="1.0" oneway="1" />
		<link id="231" from="42" to="52" length="1.0" freespeed="1.0" capacity="1.0" permlanes="1.0" oneway="1" />
		<link id="173" from="26" to="36" length="1.0" freespeed="1.0" capacity="1.0" permlanes="1.0" oneway="1" />
		<link id="235" from="43" to="53" length="1.0" freespeed="1.0" capacity="1.0" permlanes="1.0" oneway="1" />
		<link id="266" from="52" to="63" length="1.4142135623730951" freespeed="1.0" capacity="1.0" permlanes="1.0" oneway="1" />
		<link id="280" from="55" to="65" length="1.0" freespeed="1.0" capacity="1.0" permlanes="1.0" oneway="1" />
		<link id="354" from="75" to="85" length="1.0" freespeed="1.0" capacity="1.0" permlanes="1.0" oneway="1" />
		<link id="92" from="5" to="6" length="1.0" freespeed="1.0" capacity="1.0" permlanes="1.0" oneway="1" />
		<link id="138" from="17" to="28" length="1.4142135623730951" freespeed="1.0" capacity="1.0" permlanes="1.0" oneway="1" />
		<link id="120" from="12" to="22" length="1.0" freespeed="1.0" capacity="1.0" permlanes="1.0" oneway="1" />
		<link id="89" from="4" to="15" length="1.4142135623730951" freespeed="1.0" capacity="1.0" permlanes="1.0" oneway="1" />
		<link id="107" from="8" to="18" length="1.0" freespeed="1.0" capacity="1.0" permlanes="1.0" oneway="1" />
		<link id="304" from="63" to="72" length="1.4142135623730951" freespeed="1.0" capacity="1.0" permlanes="1.0" oneway="1" />
		<link id="390" from="86" to="95" length="1.4142135623730951" freespeed="1.0" capacity="1.0" permlanes="1.0" oneway="1" />
		<link id="272" from="53" to="63" length="1.0" freespeed="1.0" capacity="1.0" permlanes="1.0" oneway="1" />
		<link id="311" from="64" to="75" length="1.4142135623730951" freespeed="1.0" capacity="1.0" permlanes="1.0" oneway="1" />
		<link id="116" from="11" to="21" length="1.0" freespeed="1.0" capacity="1.0" permlanes="1.0" oneway="1" />
		<link id="185" from="31" to="40" length="1.4142135623730951" freespeed="1.0" capacity="1.0" permlanes="1.0" oneway="1" />
		<link id="383" from="83" to="93" length="1.0" freespeed="1.0" capacity="1.0" permlanes="1.0" oneway="1" />
		<link id="382" from="84" to="93" length="1.4142135623730951" freespeed="1.0" capacity="1.0" permlanes="1.0" oneway="1" />
		<link id="223" from="40" to="50" length="1.0" freespeed="1.0" capacity="1.0" permlanes="1.0" oneway="1" />
		<link id="131" from="16" to="25" length="1.4142135623730951" freespeed="1.0" capacity="1.0" permlanes="1.0" oneway="1" />
		<link id="220" from="40" to="41" length="1.0" freespeed="1.0" capacity="1.0" permlanes="1.0" oneway="1" />
		<link id="388" from="85" to="86" length="1.0" freespeed="1.0" capacity="1.0" permlanes="1.0" oneway="1" />
		<link id="199" from="34" to="35" length="1.0" freespeed="1.0" capacity="1.0" permlanes="1.0" oneway="1" />
		<link id="132" from="15" to="25" length="1.0" freespeed="1.0" capacity="1.0" permlanes="1.0" oneway="1" />
		<link id="170" from="26" to="27" length="1.0" freespeed="1.0" capacity="1.0" permlanes="1.0" oneway="1" />
		<link id="318" from="66" to="67" length="1.0" freespeed="1.0" capacity="1.0" permlanes="1.0" oneway="1" />
		<link id="212" from="37" to="48" length="1.4142135623730951" freespeed="1.0" capacity="1.0" permlanes="1.0" oneway="1" />
		<link id="84" from="3" to="4" length="1.0" freespeed="1.0" capacity="1.0" permlanes="1.0" oneway="1" />
		<link id="352" from="75" to="86" length="1.4142135623730951" freespeed="1.0" capacity="1.0" permlanes="1.0" oneway="1" />
		<link id="81" from="2" to="13" length="1.4142135623730951" freespeed="1.0" capacity="1.0" permlanes="1.0" oneway="1" />
		<link id="401" from="88" to="99" length="1.4142135623730951" freespeed="1.0" capacity="1.0" permlanes="1.0" oneway="1" />
		<link id="247" from="46" to="56" length="1.0" freespeed="1.0" capacity="1.0" permlanes="1.0" oneway="1" />
		<link id="303" from="62" to="73" length="1.4142135623730951" freespeed="1.0" capacity="1.0" permlanes="1.0" oneway="1" />
		<link id="144" from="18" to="28" length="1.0" freespeed="1.0" capacity="1.0" permlanes="1.0" oneway="1" />
		<link id="412" from="97" to="98" length="1.0" freespeed="1.0" capacity="1.0" permlanes="1.0" oneway="1" />
		<link id="253" from="48" to="59" length="1.4142135623730951" freespeed="1.0" capacity="1.0" permlanes="1.0" oneway="1" />
		<link id="76" from="1" to="2" length="1.0" freespeed="1.0" capacity="1.0" permlanes="1.0" oneway="1" />
		<link id="305" from="62" to="72" length="1.0" freespeed="1.0" capacity="1.0" permlanes="1.0" oneway="1" />
		<link id="265" from="52" to="53" length="1.0" freespeed="1.0" capacity="1.0" permlanes="1.0" oneway="1" />
		<link id="221" from="40" to="51" length="1.4142135623730951" freespeed="1.0" capacity="1.0" permlanes="1.0" oneway="1" />
		<link id="146" from="20" to="21" length="1.0" freespeed="1.0" capacity="1.0" permlanes="1.0" oneway="1" />
		<link id="243" from="45" to="55" length="1.0" freespeed="1.0" capacity="1.0" permlanes="1.0" oneway="1" />
		<link id="232" from="43" to="44" length="1.0" freespeed="1.0" capacity="1.0" permlanes="1.0" oneway="1" />
		<link id="319" from="66" to="77" length="1.4142135623730951" freespeed="1.0" capacity="1.0" permlanes="1.0" oneway="1" />
		<link id="391" from="85" to="95" length="1.0" freespeed="1.0" capacity="1.0" permlanes="1.0" oneway="1" />
		<link id="80" from="2" to="3" length="1.0" freespeed="1.0" capacity="1.0" permlanes="1.0" oneway="1" />
		<link id="95" from="5" to="15" length="1.0" freespeed="1.0" capacity="1.0" permlanes="1.0" oneway="1" />
		<link id="246" from="47" to="56" length="1.4142135623730951" freespeed="1.0" capacity="1.0" permlanes="1.0" oneway="1" />
		<link id="273" from="54" to="55" length="1.0" freespeed="1.0" capacity="1.0" permlanes="1.0" oneway="1" />
		<link id="176" from="28" to="37" length="1.4142135623730951" freespeed="1.0" capacity="1.0" permlanes="1.0" oneway="1" />
		<link id="180" from="29" to="38" length="1.4142135623730951" freespeed="1.0" capacity="1.0" permlanes="1.0" oneway="1" />
		<link id="326" from="68" to="69" length="1.0" freespeed="1.0" capacity="1.0" permlanes="1.0" oneway="1" />
		<link id="363" from="78" to="79" length="1.0" freespeed="1.0" capacity="1.0" permlanes="1.0" oneway="1" />
		<link id="123" from="14" to="23" length="1.4142135623730951" freespeed="1.0" capacity="1.0" permlanes="1.0" oneway="1" />
		<link id="278" from="55" to="66" length="1.4142135623730951" freespeed="1.0" capacity="1.0" permlanes="1.0" oneway="1" />
		<link id="337" from="72" to="81" length="1.4142135623730951" freespeed="1.0" capacity="1.0" permlanes="1.0" oneway="1" />
		<link id="255" from="48" to="58" length="1.0" freespeed="1.0" capacity="1.0" permlanes="1.0" oneway="1" />
		<link id="262" from="51" to="62" length="1.4142135623730951" freespeed="1.0" capacity="1.0" permlanes="1.0" oneway="1" />
		<link id="315" from="65" to="76" length="1.4142135623730951" freespeed="1.0" capacity="1.0" permlanes="1.0" oneway="1" />
		<link id="126" from="14" to="25" length="1.4142135623730951" freespeed="1.0" capacity="1.0" permlanes="1.0" oneway="1" />
		<link id="178" from="28" to="29" length="1.0" freespeed="1.0" capacity="1.0" permlanes="1.0" oneway="1" />
		<link id="407" from="92" to="93" length="1.0" freespeed="1.0" capacity="1.0" permlanes="1.0" oneway="1" />
		<link id="74" from="1" to="10" length="1.4142135623730951" freespeed="1.0" capacity="1.0" permlanes="1.0" oneway="1" />
		<link id="307" from="63" to="74" length="1.4142135623730951" freespeed="1.0" capacity="1.0" permlanes="1.0" oneway="1" />
		<link id="370" from="81" to="90" length="1.4142135623730951" freespeed="1.0" capacity="1.0" permlanes="1.0" oneway="1" />
		<link id="129" from="15" to="16" length="1.0" freespeed="1.0" capacity="1.0" permlanes="1.0" oneway="1" />
		<link id="164" from="25" to="34" length="1.4142135623730951" freespeed="1.0" capacity="1.0" permlanes="1.0" oneway="1" />