<?xml version="1.0" encoding="UTF-8"?>
<!DOCTYPE network SYSTEM "http://www.matsim.org/files/dtd/network_v1.dtd">
<network xml:lang="en" >
	<nodes>
		<node id="0" x="0.0" y="0.0" />
		<node id="1" x="0.0" y="1.0" />
		<node id="2" x="0.0" y="2.0" />
		<node id="3" x="0.0" y="3.0" />
		<node id="4" x="0.0" y="4.0" />
		<node id="5" x="1.0" y="0.0" />
		<node id="6" x="1.0" y="1.0" />
		<node id="7" x="1.0" y="2.0" />
		<node id="8" x="1.0" y="3.0" />
		<node id="9" x="1.0" y="4.0" />
		<node id="10" x="2.0" y="0.0" />
		<node id="11" x="2.0" y="1.0" />
		<node id="12" x="2.0" y="2.0" />
		<node id="13" x="2.0" y="3.0" />
		<node id="14" x="2.0" y="4.0" />
		<node id="15" x="3.0" y="0.0" />
		<node id="16" x="3.0" y="1.0" />
		<node id="17" x="3.0" y="2.0" />
		<node id="18" x="3.0" y="3.0" />
		<node id="19" x="3.0" y="4.0" />
		<node id="20" x="4.0" y="0.0" />
		<node id="21" x="4.0" y="1.0" />
		<node id="22" x="4.0" y="2.0" />
		<node id="23" x="4.0" y="3.0" />
		<node id="24" x="4.0" y="4.0" />
	</nodes>
	<links capperiod="01:00:00" effectivecellsize="7.5" effectivelanewidth="3.75" >
		<link id="17" from="5" to="6" length="1.0" freespeed="1.0" capacity="1.0" permlanes="1.0" oneway="1" />
		<link id="59" from="17" to="18" length="1.0" freespeed="1.0" capacity="1.0" permlanes="1.0" oneway="1" />
		<link id="28" from="7" to="12" length="1.0" freespeed="1.0" capacity="1.0" permlanes="1.0" oneway="1" />
		<link id="43" from="12" to="18" length="1.4142135623730951" freespeed="1.0" capacity="1.0" permlanes="1.0" oneway="1" />
		<link id="34" from="10" to="11" length="1.0" freespeed="1.0" capacity="1.0" permlanes="1.0" oneway="1" />
		<link id="71" from="23" to="24" length="1.0" freespeed="1.0" capacity="1.0" permlanes="1.0" oneway="1" />
		<link id="61" from="18" to="22" length="1.4142135623730951" freespeed="1.0" capacity="1.0" permlanes="1.0" oneway="1" />
		<link id="36" from="11" to="15" length="1.4142135623730951" freespeed="1.0" capacity="1.0" permlanes="1.0" oneway="1" />
		<link id="26" from="7" to="13" length="1.4142135623730951" freespeed="1.0" capacity="1.0" permlanes="1.0" oneway="1" />
		<link id="10" from="3" to="7" length="1.4142135623730951" freespeed="1.0" capacity="1.0" permlanes="1.0" oneway="1" />
		<link id="67" from="19" to="24" length="1.0" freespeed="1.0" capacity="1.0" permlanes="1.0" oneway="1" />
		<link id="27" from="8" to="12" length="1.4142135623730951" freespeed="1.0" capacity="1.0" permlanes="1.0" oneway="1" />
		<link id="39" from="11" to="17" length="1.4142135623730951" freespeed="1.0" capacity="1.0" permlanes="1.0" oneway="1" />
		<link id="46" from="13" to="14" length="1.0" freespeed="1.0" capacity="1.0" permlanes="1.0" oneway="1" />
		<link id="19" from="6" to="10" length="1.4142135623730951" freespeed="1.0" capacity="1.0" permlanes="1.0" oneway="1" />
		<link id="65" from="19" to="23" length="1.4142135623730951" freespeed="1.0" capacity="1.0" permlanes="1.0" oneway="1" />
		<link id="52" from="15" to="21" length="1.4142135623730951" freespeed="1.0" capacity="1.0" permlanes="1.0" oneway="1" />
		<link id="55" from="16" to="17" length="1.0" freespeed="1.0" capacity="1.0" permlanes="1.0" oneway="1" />
		<link id="25" from="7" to="8" length="1.0" freespeed="1.0" capacity="1.0" permlanes="1.0" oneway="1" />
		<link id="29" from="8" to="9" length="1.0" freespeed="1.0" capacity="1.0" permlanes="1.0" oneway="1" />
		<link id="30" from="8" to="14" length="1.4142135623730951" freespeed="1.0" capacity="1.0" permlanes="1.0" oneway="1" />
		<link id="51" from="15" to="16" length="1.0" freespeed="1.0" capacity="1.0" permlanes="1.0" oneway="1" />
		<link id="66" from="18" to="23" length="1.0" freespeed="1.0" capacity="1.0" permlanes="1.0" oneway="1" />
		<link id="12" from="3" to="4" length="1.0" freespeed="1.0" capacity="1.0" permlanes="1.0" oneway="1" />
		<link id="45" from="12" to="17" length="1.0" freespeed="1.0" capacity="1.0" permlanes="1.0" oneway="1" />
		<link id="22" from="6" to="12" length="1.4142135623730951" freespeed="1.0" capacity="1.0" permlanes="1.0" oneway="1" />
		<link id="6" from="2" to="6" length="1.4142135623730951" freespeed="1.0" capacity="1.0" permlanes="1.0" oneway="1" />
		<link id="1" from="0" to="6" length="1.4142135623730951" freespeed="1.0" capacity="1.0" permlanes="1.0" oneway="1" />
		<link id="58" from="16" to="21" length="1.0" freespeed="1.0" capacity="1.0" permlanes="1.0" oneway="1" />
		<link id="60" from="17" to="23" length="1.4142135623730951" freespeed="1.0" capacity="1.0" permlanes="1.0" oneway="1" />
		<link id="70" from="22" to="23" length="1.0" freespeed="1.0" capacity="1.0" permlanes="1.0" oneway="1" />
		<link id="11" from="2" to="7" length="1.0" freespeed="1.0" capacity="1.0" permlanes="1.0" oneway="1" />
		<link id="69" from="21" to="22" length="1.0" freespeed="1.0" capacity="1.0" permlanes="1.0" oneway="1" />
		<link id="3" from="0" to="5" length="1.0" freespeed="1.0" capacity="1.0" permlanes="1.0" oneway="1" />
		<link id="13" from="3" to="9" length="1.4142135623730951" freespeed="1.0" capacity="1.0" permlanes="1.0" oneway="1" />
		<link id="21" from="6" to="7" length="1.0" freespeed="1.0" capacity="1.0" permlanes="1.0" oneway="1" />
		<link id="53" from="16" to="20" length="1.4142135623730951" freespeed="1.0" capacity="1.0" permlanes="1.0" oneway="1" />
		<link id="42" from="12" to="13" length="1.0" freespeed="1.0" capacity="1.0" permlanes="1.0" oneway="1" />
		<link id="56" from="16" to="22" length="1.4142135623730951" freespeed="1.0" capacity="1.0" permlanes="1.0" oneway="1" />
		<link id="0" from="0" to="1" length="1.0" freespeed="1.0" capacity="1.0" permlanes="1.0" oneway="1" />
		<link id="23" from="7" to="11" length="1.4142135623730951" freespeed="1.0" capacity="1.0" permlanes="1.0" oneway="1" />
		<link id="14" from="4" to="8" length="1.4142135623730951" freespeed="1.0" capacity="1.0" permlanes="1.0" oneway="1" />
		<link id="24" from="6" to="11" length="1.0" freespeed="1.0" capacity="1.0" permlanes="1.0" oneway="1" />
		<link id="49" from="13" to="18" length="1.0" freespeed="1.0" capacity="1.0" permlanes="1.0" oneway="1" />
		<link id="31" from="9" to="13" length="1.4142135623730951" freespeed="1.0" capacity="1.0" permlanes="1.0" oneway="1" />
		<link id="33" from="9" to="14" length="1.0" freespeed="1.0" capacity="1.0" permlanes="1.0" oneway="1" />
		<link id="18" from="5" to="11" length="1.4142135623730951" freespeed="1.0" capacity="1.0" permlanes="1.0" oneway="1" />
		<link id="9" from="2" to="8" length="1.4142135623730951" freespeed="1.0" capacity="1.0" permlanes="1.0" oneway="1" />
		<link id="40" from="12" to="16" length="1.4142135623730951" freespeed="1.0" capacity="1.0" permlanes="1.0" oneway="1" />
		<link id="7" from="1" to="6" length="1.0" freespeed="1.0" capacity="1.0" permlanes="1.0" oneway="1" />
		<link id="35" from="10" to="16" length="1.4142135623730951" freespeed="1.0" capacity="1.0" permlanes="1.0" oneway="1" />
		<link id="47" from="13" to="19" length="1.4142135623730951" freespeed="1.0" capacity="1.0" permlanes="1.0" oneway="1" />
		<link id="48" from="14" to="18" length="1.4142135623730951" freespeed="1.0" capacity="1.0" permlanes="1.0" oneway="1" />
		<link id="63" from="18" to="19" length="1.0" freespeed="1.0" capacity="1.0" permlanes="1.0" oneway="1" />
		<link id="37" from="10" to="15" length="1.0" freespeed="1.0" capacity="1.0" permlanes="1.0" oneway="1" />
		<link id="5" from="1" to="7" length="1.4142135623730951" freespeed="1.0" capacity="1.0" permlanes="1.0" oneway="1" />
		<link id="4" from="1" to="2" length="1.0" freespeed="1.0" capacity="1.0" permlanes="1.0" oneway="1" />
		<link id="38" from="11" to="12" length="1.0" freespeed="1.0" capacity="1.0" permlanes="1.0" oneway="1" />
		<link id="8" from="2" to="3" length="1.0" freespeed="1.0" capacity="1.0" permlanes="1.0" oneway="1" />
		<link id="15" from="3" to="8" length="1.0" freespeed="1.0" capacity="1.0" permlanes="1.0" oneway="1" />
		<link id="44" from="13" to="17" length="1.4142135623730951" freespeed="1.0" capacity="1.0" permlanes="1.0" oneway="1" />
		<link id="16" from="4" to="9" length="1.0" freespeed="1.0" capacity="1.0" permlanes="1.0" oneway="1" />
		<link id="2" from="1" to="5" length="1.4142135623730951" freespeed="1.0" capacity="1.0" permlanes="1.0" oneway="1" />
		<link id="62" from="17" to="22" length="1.0" freespeed="1.0" capacity="1.0" permlanes="1.0" oneway="1" />
		<link id="20" from="5" to="10" length="1.0" freespeed="1.0" capacity="1.0" permlanes="1.0" oneway="1" />
		<link id="64" from="18" to="24" length="1.4142135623730951" freespeed="1.0" capacity="1.0" permlanes="1.0" oneway="1" />
		<link id="54" from="15" to="20" length="1.0" freespeed="1.0" capacity="1.0" permlanes="1.0" oneway="1" />
		<link id="57" from="17" to="21" length="1.4142135623730951" freespeed="1.0" capacity="1.0" permlanes="1.0" oneway="1" />
		<link id="41" from="11" to="16" length="1.0" freespeed="1.0" capacity="1.0" permlanes="1.0" oneway="1" />
		<link id="32" from="8" to="13" length="1.0" freespeed="1.0" capacity="1.0" permlanes="1.0" oneway="1" />
		<link id="50" from="14" to="19" length="1.0" freespeed="1.0" capacity="1.0" permlanes="1.0" oneway="1" />
		<link id="68" from="20" to="21" length="1.0" freespeed="1.0" capacity="1.0" permlanes="1.0" oneway="1" />
	</links>
</network>
